<?xml version="1.0" encoding="UTF-8"?>

<!-- generated on 2024-03-09 17:49:02 by Eclipse SUMO netedit Version 1.19.0
-->

<routes xmlns:xsi="http://www.w3.org/2001/XMLSchema-instance" xsi:noNamespaceSchemaLocation="http://sumo.dlr.de/xsd/routes_file.xsd">
    <!-- VTypes -->
    <vType id="veh_passenger" vClass="passenger"/>
    <!-- Vehicles, persons and containers (sorted by depart) -->
    <trip id="veh0" type="veh_passenger" depart="0.00" departLane="best" from="115561645#20" to="-110289105#1"/>
    <trip id="veh1" type="veh_passenger" depart="0.31" departLane="best" from="293286423#20" to="-185546466#0"/>
    <trip id="veh2" type="veh_passenger" depart="0.62" departLane="best" from="167062000#0" to="164415951"/>
    <trip id="veh3" type="veh_passenger" depart="0.94" departLane="best" departSpeed="max" from="466369464#0" to="-115561103#3"/>
    <trip id="veh4" type="veh_passenger" depart="1.25" departLane="best" from="-824134759#10" to="-111835201#2"/>
    <trip id="veh5" type="veh_passenger" depart="1.56" departLane="best" from="-185546465#2" to="115561087#1"/>
    <trip id="veh6" type="veh_passenger" depart="1.87" departLane="best" departSpeed="max" from="-110292382" to="1253898376#11"/>
    <trip id="veh7" type="veh_passenger" depart="2.18" departLane="best" from="115561710" to="115561316#7"/>
    <trip id="veh8" type="veh_passenger" depart="2.50" departLane="best" from="-195779439#1" to="115561672#1"/>
    <trip id="veh9" type="veh_passenger" depart="2.81" departLane="best" from="293888620" to="103426225#6"/>
    <trip id="veh10" type="veh_passenger" depart="3.12" departLane="best" from="293286423#5" to="191100233#0"/>
    <trip id="veh11" type="veh_passenger" depart="3.43" departLane="best" departSpeed="max" from="-417319532#7" to="-115561646#0"/>
    <trip id="veh12" type="veh_passenger" depart="3.74" departLane="best" from="-816798911#3" to="-512824053#8"/>
    <trip id="veh13" type="veh_passenger" depart="4.05" departLane="best" departSpeed="max" from="39258027#0" to="115684378#2"/>
    <trip id="veh14" type="veh_passenger" depart="4.37" departLane="best" departSpeed="max" from="293286426" to="252482802#2"/>
    <trip id="veh15" type="veh_passenger" depart="4.68" departLane="best" from="115560944#0" to="87494508#1"/>
    <trip id="veh16" type="veh_passenger" depart="4.99" departLane="best" from="-624356720#0" to="115561368"/>
    <trip id="veh17" type="veh_passenger" depart="5.30" departLane="best" from="367617920#2" to="116620487#1"/>
    <trip id="veh18" type="veh_passenger" depart="5.61" departLane="best" from="417114109#0" to="115561609#6"/>
    <trip id="veh19" type="veh_passenger" depart="5.93" departLane="best" from="-138652750#0" to="-1137637521#0"/>
    <trip id="veh20" type="veh_passenger" depart="6.24" departLane="best" from="-243008519" to="-38359863#0"/>
    <trip id="veh21" type="veh_passenger" depart="6.55" departLane="best" from="115561095#1" to="251561909#6"/>
    <trip id="veh22" type="veh_passenger" depart="6.86" departLane="best" departSpeed="max" from="-115561231" to="-302837934#3"/>
    <trip id="veh23" type="veh_passenger" depart="7.17" departLane="best" departSpeed="max" from="115561628#0" to="723312334#0"/>
    <trip id="veh24" type="veh_passenger" depart="7.49" departLane="best" from="-547247957#7" to="-146222820#6"/>
    <trip id="veh25" type="veh_passenger" depart="7.80" departLane="best" from="-279250264#2" to="695710891"/>
    <trip id="veh26" type="veh_passenger" depart="8.11" departLane="best" departSpeed="max" from="115561696" to="115707750#0"/>
    <trip id="veh27" type="veh_passenger" depart="8.42" departLane="best" departSpeed="max" from="-115684391" to="251824100#2"/>
    <trip id="veh28" type="veh_passenger" depart="8.73" departLane="best" from="115564945#3" to="846888498#2"/>
    <trip id="veh29" type="veh_passenger" depart="9.05" departLane="best" from="944388519" to="136711828#1"/>
    <trip id="veh30" type="veh_passenger" depart="9.36" departLane="best" from="115561061#3" to="182941668"/>
    <trip id="veh31" type="veh_passenger" depart="9.67" departLane="best" from="-38691386#2" to="-302167403#0"/>
    <trip id="veh32" type="veh_passenger" depart="9.98" departLane="best" departSpeed="max" from="-251411281" to="-112383665#17"/>
    <trip id="veh33" type="veh_passenger" depart="10.29" departLane="best" from="-38691386#22" to="293290803"/>
    <trip id="veh34" type="veh_passenger" depart="10.60" departLane="best" from="170772573#0" to="723313369#5"/>
    <trip id="veh35" type="veh_passenger" depart="10.92" departLane="best" from="-417235705#3" to="-417216187#4"/>
    <trip id="veh36" type="veh_passenger" depart="11.23" departLane="best" departSpeed="max" from="115573144" to="-995470714"/>
    <trip id="veh37" type="veh_passenger" depart="11.54" departLane="best" from="548038427#0" to="1137637521#2"/>
    <trip id="veh38" type="veh_passenger" depart="11.85" departLane="best" departSpeed="max" from="-279250249" to="-264478955#1"/>
    <trip id="veh39" type="veh_passenger" depart="12.16" departLane="best" from="-115561084#0" to="280889776#0"/>
    <trip id="veh40" type="veh_passenger" depart="12.48" departLane="best" departSpeed="max" from="115561240" to="570104370#3"/>
    <trip id="veh41" type="veh_passenger" depart="12.79" departLane="best" departSpeed="max" from="-695509698" to="-182941669#4"/>
    <trip id="veh42" type="veh_passenger" depart="13.10" departLane="best" departSpeed="max" from="979318794" to="115561104#0"/>
    <trip id="veh43" type="veh_passenger" depart="13.41" departLane="best" departSpeed="max" from="-115561156" to="-114568200"/>
    <trip id="veh44" type="veh_passenger" depart="13.72" departLane="best" from="-115561296" to="116901757"/>
    <trip id="veh45" type="veh_passenger" depart="14.04" departLane="best" from="268140839#5" to="1068841511#1"/>
    <trip id="veh46" type="veh_passenger" depart="14.35" departLane="best" departSpeed="max" from="-115561017#1" to="87497334#8"/>
    <trip id="veh47" type="veh_passenger" depart="14.66" departLane="best" from="966003737#4" to="-115561225#1"/>
    <trip id="veh48" type="veh_passenger" depart="14.97" departLane="best" from="839896277" to="-448142993#1"/>
    <trip id="veh49" type="veh_passenger" depart="15.28" departLane="best" departSpeed="max" from="-1059183094" to="251566867#2"/>
    <trip id="veh50" type="veh_passenger" depart="15.60" departLane="best" from="-1168291879#1" to="-115561272#8"/>
    <trip id="veh51" type="veh_passenger" depart="15.91" departLane="best" from="-279250264#0" to="136711828#16"/>
    <trip id="veh52" type="veh_passenger" depart="16.22" departLane="best" from="-115561305#6" to="1090868068#1"/>
    <trip id="veh53" type="veh_passenger" depart="16.53" departLane="best" from="-1026642571#1" to="803679037"/>
    <trip id="veh54" type="veh_passenger" depart="16.84" departLane="best" from="417228592" to="293286411#1"/>
    <trip id="veh55" type="veh_passenger" depart="17.15" departLane="best" from="112385801#5" to="-115684395"/>
    <trip id="veh56" type="veh_passenger" depart="17.47" departLane="best" from="547266341#1" to="512785192#0"/>
    <trip id="veh57" type="veh_passenger" depart="17.78" departLane="best" from="-327859978#0" to="136711823"/>
    <trip id="veh58" type="veh_passenger" depart="18.09" departLane="best" from="115561385#2" to="-115561631"/>
    <trip id="veh59" type="veh_passenger" depart="18.40" departLane="best" from="203589978#2" to="115561295#1"/>
    <trip id="veh60" type="veh_passenger" depart="18.71" departLane="best" from="251824099#1" to="115561232"/>
    <trip id="veh61" type="veh_passenger" depart="19.03" departLane="best" from="1004737853#1" to="-448142993#1"/>
    <trip id="veh63" type="veh_passenger" depart="19.65" departLane="best" from="417316215#1" to="417114113"/>
    <trip id="veh64" type="veh_passenger" depart="19.96" departLane="best" from="-377857997" to="115560891#0"/>
    <trip id="veh65" type="veh_passenger" depart="20.27" departLane="best" from="417309446#0" to="726003546"/>
    <trip id="veh66" type="veh_passenger" depart="20.59" departLane="best" departSpeed="max" from="-115561129#2" to="115561004#5"/>
    <trip id="veh67" type="veh_passenger" depart="20.90" departLane="best" from="-115561044#4" to="293286412"/>
    <trip id="veh68" type="veh_passenger" depart="21.21" departLane="best" from="236320910#1" to="-115561445#3"/>
    <trip id="veh69" type="veh_passenger" depart="21.52" departLane="best" departSpeed="max" from="107628117" to="-115561365#1"/>
    <trip id="veh70" type="veh_passenger" depart="21.83" departLane="best" from="-279250252#0" to="512824053#10"/>
    <trip id="veh71" type="veh_passenger" depart="22.15" departLane="best" from="-824134759#24" to="158532277"/>
    <trip id="veh72" type="veh_passenger" depart="22.46" departLane="best" from="115560977" to="252482802#4"/>
    <trip id="veh73" type="veh_passenger" depart="22.77" departLane="best" departSpeed="max" from="-138865617" to="417114125#3"/>
    <trip id="veh75" type="veh_passenger" depart="23.39" departLane="best" from="-931123656#0" to="115561153"/>
    <trip id="veh76" type="veh_passenger" depart="23.70" departLane="best" departSpeed="max" from="-115561371" to="-195779439#0"/>
    <trip id="veh77" type="veh_passenger" depart="24.02" departLane="best" from="417309446#0" to="-115561666#3"/>
    <trip id="veh78" type="veh_passenger" depart="24.33" departLane="best" departSpeed="max" from="-251561891" to="183206665#2"/>
    <trip id="veh79" type="veh_passenger" depart="24.64" departLane="best" departSpeed="max" from="-115561056" to="1204986416#1"/>
    <trip id="veh80" type="veh_passenger" depart="24.95" departLane="best" departSpeed="max" from="-251411264#2" to="671983122#7"/>
    <trip id="veh81" type="veh_passenger" depart="25.26" departLane="best" from="417114091#2" to="115561022#3"/>
    <trip id="veh82" type="veh_passenger" depart="25.58" departLane="best" from="-251566881#2" to="154717203#0"/>
    <trip id="veh83" type="veh_passenger" depart="25.89" departLane="best" from="-182941670#5" to="115561486#2"/>
    <trip id="veh84" type="veh_passenger" depart="26.20" departLane="best" from="694603074#1" to="115561522#1"/>
    <trip id="veh85" type="veh_passenger" depart="26.51" departLane="best" from="107202366" to="306397685"/>
    <trip id="veh86" type="veh_passenger" depart="26.82" departLane="best" from="-293290757#1" to="116447124#4"/>
    <trip id="veh87" type="veh_passenger" depart="27.14" departLane="best" from="115561202#1" to="108945348#0"/>
    <trip id="veh88" type="veh_passenger" depart="27.45" departLane="best" from="-824134759#4" to="-512824053#9"/>
    <trip id="veh89" type="veh_passenger" depart="27.76" departLane="best" from="156542093" to="162117760#2"/>
    <trip id="veh90" type="veh_passenger" depart="28.07" departLane="best" from="251824102" to="-115561194#1"/>
    <trip id="veh91" type="veh_passenger" depart="28.38" departLane="best" from="-695515396" to="-530847888#0"/>
    <trip id="veh92" type="veh_passenger" depart="28.70" departLane="best" from="417114109#0" to="-266143621"/>
    <trip id="veh93" type="veh_passenger" depart="29.01" departLane="best" from="116980610#20" to="-111835201#6"/>
    <trip id="veh94" type="veh_passenger" depart="29.32" departLane="best" from="-824134759#1" to="305378536#1"/>
    <trip id="veh95" type="veh_passenger" depart="29.63" departLane="best" from="264478955#7" to="695039777#1"/>
    <trip id="veh96" type="veh_passenger" depart="29.94" departLane="best" from="944388522#0" to="450193524"/>
    <trip id="veh97" type="veh_passenger" depart="30.25" departLane="best" from="115561042#3" to="-114814364#3"/>
    <trip id="veh98" type="veh_passenger" depart="30.57" departLane="best" departSpeed="max" from="995470714" to="-417192339#1"/>
    <trip id="veh99" type="veh_passenger" depart="30.88" departLane="best" from="-827664055#2" to="695499832"/>
    <trip id="veh100" type="veh_passenger" depart="31.19" departLane="best" from="394992426" to="-115561721#0"/>
    <trip id="veh101" type="veh_passenger" depart="31.50" departLane="best" from="-109749483#10" to="-167061995"/>
    <trip id="veh103" type="veh_passenger" depart="32.13" departLane="best" from="624841690#2" to="931378515#1"/>
    <trip id="veh104" type="veh_passenger" depart="32.44" departLane="best" from="-279250254#0" to="305380851#0"/>
    <trip id="veh105" type="veh_passenger" depart="32.75" departLane="best" from="-816798911#4" to="958030634#6"/>
    <trip id="veh106" type="veh_passenger" depart="33.06" departLane="best" from="115561059#0" to="251561912#0"/>
    <trip id="veh107" type="veh_passenger" depart="33.37" departLane="best" from="-115561666#4" to="-39258026#0"/>
    <trip id="veh108" type="veh_passenger" depart="33.69" departLane="best" from="827658297#1" to="115561621#7"/>
    <trip id="veh109" type="veh_passenger" depart="34.00" departLane="best" from="115560996#0" to="279250215#0"/>
    <trip id="veh110" type="veh_passenger" depart="34.31" departLane="best" from="-115560974" to="115561648#2"/>
    <trip id="veh111" type="veh_passenger" depart="34.62" departLane="best" from="-1125927214#2" to="419285540#12"/>
    <trip id="veh112" type="veh_passenger" depart="34.93" departLane="best" from="115561681#2" to="824174712#8"/>
    <trip id="veh114" type="veh_passenger" depart="35.56" departLane="best" departSpeed="max" from="115561292" to="164415946"/>
    <trip id="veh115" type="veh_passenger" depart="35.87" departLane="best" departSpeed="max" from="-251566867#2" to="-115561332#3"/>
    <trip id="veh116" type="veh_passenger" depart="36.18" departLane="best" from="459456564#1" to="-264474356"/>
    <trip id="veh117" type="veh_passenger" depart="36.49" departLane="best" departSpeed="max" from="115561291" to="116622337"/>
    <trip id="veh118" type="veh_passenger" depart="36.80" departLane="best" from="816798911#2" to="115561646#1"/>
    <trip id="veh119" type="veh_passenger" depart="37.12" departLane="best" from="114939914#3" to="695669218"/>
    <trip id="veh120" type="veh_passenger" depart="37.43" departLane="best" from="154717185#0" to="251561895"/>
    <trip id="veh121" type="veh_passenger" depart="37.74" departLane="best" from="-251672020#1" to="-995470714"/>
    <trip id="veh122" type="veh_passenger" depart="38.05" departLane="best" departSpeed="max" from="115976828" to="-403546896#1"/>
    <trip id="veh123" type="veh_passenger" depart="38.36" departLane="best" from="38691390#2" to="279250236#4"/>
    <trip id="veh124" type="veh_passenger" depart="38.68" departLane="best" from="115561061#0" to="113593056#1"/>
    <trip id="veh125" type="veh_passenger" depart="38.99" departLane="best" from="988510423#1" to="958030634#8"/>
    <trip id="veh126" type="veh_passenger" depart="39.30" departLane="best" from="-115561064#1" to="-167061994#4"/>
    <trip id="veh127" type="veh_passenger" depart="39.61" departLane="best" from="-279250252#1" to="695669214"/>
    <trip id="veh128" type="veh_passenger" depart="39.92" departLane="best" from="417319537#2" to="518924101#0"/>
    <trip id="veh129" type="veh_passenger" depart="40.24" departLane="best" from="547236146#1" to="-115561668"/>
    <trip id="veh130" type="veh_passenger" depart="40.55" departLane="best" from="38359866#0" to="203589968#3"/>
    <trip id="veh131" type="veh_passenger" depart="40.86" departLane="best" from="115561433" to="-931398778"/>
    <trip id="veh133" type="veh_passenger" depart="41.48" departLane="best" from="302837933#16" to="-394993092"/>
    <trip id="veh134" type="veh_passenger" depart="41.79" departLane="best" departSpeed="max" from="115684382#0" to="706467259#0"/>
    <trip id="veh135" type="veh_passenger" depart="42.11" departLane="best" departSpeed="max" from="-115561496" to="115561300#3"/>
    <trip id="veh136" type="veh_passenger" depart="42.42" departLane="best" from="115561272#9" to="115561372"/>
    <trip id="veh137" type="veh_passenger" depart="42.73" departLane="best" from="-293286415#0" to="115684390#0"/>
    <trip id="veh138" type="veh_passenger" depart="43.04" departLane="best" from="141821040#3" to="-136727890"/>
    <trip id="veh139" type="veh_passenger" depart="43.35" departLane="best" departSpeed="max" from="115561624#0" to="293286420#0"/>
    <trip id="veh140" type="veh_passenger" depart="43.67" departLane="best" from="875105047#2" to="671983122#7"/>
    <trip id="veh141" type="veh_passenger" depart="43.98" departLane="best" from="38691396#8" to="-115561134#7"/>
    <trip id="veh142" type="veh_passenger" depart="44.29" departLane="best" from="-824134759#4" to="-302837933#25"/>
    <trip id="veh143" type="veh_passenger" depart="44.60" departLane="best" from="101148919#4" to="302121114#0"/>
    <trip id="veh144" type="veh_passenger" depart="44.91" departLane="best" departSpeed="max" from="115561630" to="-280889768#14"/>
    <trip id="veh145" type="veh_passenger" depart="45.23" departLane="best" departSpeed="max" from="182941663#0" to="115561368"/>
    <trip id="veh146" type="veh_passenger" depart="45.54" departLane="best" from="839896283#10" to="1065705314"/>
    <trip id="veh147" type="veh_passenger" depart="45.85" departLane="best" from="-115561074#2" to="545148174#3"/>
    <trip id="veh148" type="veh_passenger" depart="46.16" departLane="best" from="530847888#1" to="-115561332#4"/>
    <trip id="veh149" type="veh_passenger" depart="46.47" departLane="best" from="-38359893#0" to="115561645#2"/>
    <trip id="veh150" type="veh_passenger" depart="46.79" departLane="best" from="-115561632#1" to="-115561435"/>
    <trip id="veh151" type="veh_passenger" depart="47.10" departLane="best" from="38359854#4" to="607394070#0"/>
    <trip id="veh152" type="veh_passenger" depart="47.41" departLane="best" from="279156925#1" to="-448142993#0"/>
    <trip id="veh153" type="veh_passenger" depart="47.72" departLane="best" from="512824053#31" to="-148331416#2"/>
    <trip id="veh154" type="veh_passenger" depart="48.03" departLane="best" from="264478955#3" to="-115561228"/>
    <trip id="veh155" type="veh_passenger" depart="48.34" departLane="best" from="-252482821#1" to="547146213#0"/>
    <trip id="veh156" type="veh_passenger" depart="48.66" departLane="best" departSpeed="max" from="-695669216" to="116625957#0"/>
    <trip id="veh157" type="veh_passenger" depart="48.97" departLane="best" from="-115561666#1" to="695509704"/>
    <trip id="veh158" type="veh_passenger" depart="49.28" departLane="best" from="417114123#2" to="87497337#5"/>
    <trip id="veh159" type="veh_passenger" depart="49.59" departLane="best" from="294190131#3" to="-545148171#1"/>
    <trip id="veh160" type="veh_passenger" depart="49.90" departLane="best" from="-1099670076" to="264480094#2"/>
    <trip id="veh161" type="veh_passenger" depart="50.22" departLane="best" from="-417184985#3" to="695654521#1"/>
    <trip id="veh163" type="veh_passenger" depart="50.84" departLane="best" from="294190131#3" to="-293286426"/>
    <trip id="veh164" type="veh_passenger" depart="51.15" departLane="best" from="266143639#3" to="115561266#0"/>
    <trip id="veh165" type="veh_passenger" depart="51.46" departLane="best" from="417228502#1" to="438074910"/>
    <trip id="veh166" type="veh_passenger" depart="51.78" departLane="best" departSpeed="max" from="-203589956" to="39258026#3"/>
    <trip id="veh167" type="veh_passenger" depart="52.09" departLane="best" from="1057883198#0" to="-413958678#0"/>
    <trip id="veh168" type="veh_passenger" depart="52.40" departLane="best" from="279156185#8" to="-203589976#6"/>
    <trip id="veh169" type="veh_passenger" depart="52.71" departLane="best" from="-109749483#2" to="-116789834#0"/>
    <trip id="veh170" type="veh_passenger" depart="53.02" departLane="best" from="-417114112#2" to="459456560#1"/>
    <trip id="veh171" type="veh_passenger" depart="53.34" departLane="best" from="824174722#3" to="306992751#1"/>
    <trip id="veh172" type="veh_passenger" depart="53.65" departLane="best" from="115561188#5" to="1008733148#1"/>
    <trip id="veh173" type="veh_passenger" depart="53.96" departLane="best" from="875111478" to="-115561272#0"/>
    <trip id="veh174" type="veh_passenger" depart="54.27" departLane="best" from="695491291" to="-115561300#2"/>
    <trip id="veh175" type="veh_passenger" depart="54.58" departLane="best" from="827939969#5" to="-115684395"/>
    <trip id="veh176" type="veh_passenger" depart="54.89" departLane="best" from="824174712#1" to="-293286423#4"/>
    <trip id="veh177" type="veh_passenger" depart="55.21" departLane="best" from="-115561288" to="1090867895"/>
    <trip id="veh178" type="veh_passenger" depart="55.52" departLane="best" departSpeed="max" from="155287637" to="-417192346#1"/>
    <trip id="veh179" type="veh_passenger" depart="55.83" departLane="best" from="-115561364#0" to="115561119#0"/>
    <trip id="veh180" type="veh_passenger" depart="56.14" departLane="best" from="684241715#1" to="115561607#1"/>
    <trip id="veh181" type="veh_passenger" depart="56.45" departLane="best" from="268140839#4" to="221661052#3"/>
    <trip id="veh182" type="veh_passenger" depart="56.77" departLane="best" from="-1004744416#1" to="695491289#1"/>
    <trip id="veh183" type="veh_passenger" depart="57.08" departLane="best" departSpeed="max" from="115560975#0" to="251561921"/>
    <trip id="veh184" type="veh_passenger" depart="57.39" departLane="best" from="182941664#1" to="156542093"/>
    <trip id="veh185" type="veh_passenger" depart="57.70" departLane="best" from="-512824053#39" to="-115561015"/>
    <trip id="veh187" type="veh_passenger" depart="58.33" departLane="best" from="-38393992#0" to="417316228#1"/>
    <trip id="veh188" type="veh_passenger" depart="58.64" departLane="best" from="-146222820#3" to="-404898403#0"/>
    <trip id="veh189" type="veh_passenger" depart="58.95" departLane="best" from="-38359862" to="1057883193#1"/>
    <trip id="veh190" type="veh_passenger" depart="59.26" departLane="best" from="-695515389" to="-38691386#8"/>
    <trip id="veh191" type="veh_passenger" depart="59.57" departLane="best" departSpeed="max" from="-115561443#1" to="1068837568#3"/>
    <trip id="veh192" type="veh_passenger" depart="59.89" departLane="best" departSpeed="max" from="695654521#0" to="164415954#4"/>
    <trip id="veh193" type="veh_passenger" depart="60.20" departLane="best" from="529450290#0" to="116245283#4"/>
    <trip id="veh194" type="veh_passenger" depart="60.51" departLane="best" departSpeed="max" from="-330446508#1" to="115561344#4"/>
    <trip id="veh195" type="veh_passenger" depart="60.82" departLane="best" from="-1004737850" to="-357169468"/>
    <trip id="veh196" type="veh_passenger" depart="61.13" departLane="best" departSpeed="max" from="-846888496" to="115561623#0"/>
    <trip id="veh197" type="veh_passenger" depart="61.44" departLane="best" from="115572735" to="114939914#3"/>
    <trip id="veh198" type="veh_passenger" depart="61.76" departLane="best" from="-931451534" to="-167061995"/>
    <trip id="veh199" type="veh_passenger" depart="62.07" departLane="best" from="107211475#3" to="666924953#0"/>
    <trip id="veh200" type="veh_passenger" depart="62.38" departLane="best" from="-279156925#0" to="-115572975#2"/>
    <trip id="veh201" type="veh_passenger" depart="62.69" departLane="best" departSpeed="max" from="115561616#0" to="512824053#30"/>
    <trip id="veh202" type="veh_passenger" depart="63.00" departLane="best" from="302837933#6" to="279250234"/>
    <trip id="veh203" type="veh_passenger" depart="63.32" departLane="best" departSpeed="max" from="115977291#0" to="-195779439#0"/>
    <trip id="veh204" type="veh_passenger" depart="63.63" departLane="best" from="-138652747#1" to="-110285648#1"/>
    <trip id="veh205" type="veh_passenger" depart="63.94" departLane="best" from="-252482821#1" to="-115560923#8"/>
    <trip id="veh206" type="veh_passenger" depart="64.25" departLane="best" departSpeed="max" from="403546896#0" to="-115561035"/>
    <trip id="veh207" type="veh_passenger" depart="64.56" departLane="best" departSpeed="max" from="-725995387" to="116980610#9"/>
    <trip id="veh208" type="veh_passenger" depart="64.88" departLane="best" from="135704109#4" to="185549298#2"/>
    <trip id="veh209" type="veh_passenger" depart="65.19" departLane="best" from="-110603157#3" to="-252482823#5"/>
    <trip id="veh210" type="veh_passenger" depart="65.50" departLane="best" from="-115617908#0" to="1028732094#0"/>
    <trip id="veh211" type="veh_passenger" depart="65.81" departLane="best" from="185549297#1" to="-296623215"/>
    <trip id="veh212" type="veh_passenger" depart="66.12" departLane="best" from="-115561272#4" to="107627649#1"/>
    <trip id="veh213" type="veh_passenger" depart="66.44" departLane="best" from="115708881#1" to="824134759#2"/>
    <trip id="veh214" type="veh_passenger" depart="66.75" departLane="best" from="114613770#4" to="-114615023#2"/>
    <trip id="veh215" type="veh_passenger" depart="67.06" departLane="best" departSpeed="max" from="-264478119#3" to="417316231#0"/>
    <trip id="veh216" type="veh_passenger" depart="67.37" departLane="best" from="104591404#0" to="38359850#1"/>
    <trip id="veh217" type="veh_passenger" depart="67.68" departLane="best" departSpeed="max" from="115707445" to="931405747#1"/>
    <trip id="veh218" type="veh_passenger" depart="67.99" departLane="best" departSpeed="max" from="115561293" to="758501315#1"/>
    <trip id="veh219" type="veh_passenger" depart="68.31" departLane="best" from="-570104370#4" to="115930599#0"/>
    <trip id="veh220" type="veh_passenger" depart="68.62" departLane="best" from="146222819#0" to="115561084#5"/>
    <trip id="veh221" type="veh_passenger" depart="68.93" departLane="best" from="-38359845" to="-115561344#3"/>
    <trip id="veh222" type="veh_passenger" depart="69.24" departLane="best" from="512824053#2" to="278402142"/>
    <trip id="veh223" type="veh_passenger" depart="69.55" departLane="best" from="107489478#2" to="279250254#0"/>
    <trip id="veh224" type="veh_passenger" depart="69.87" departLane="best" departSpeed="max" from="-254698398" to="136711820#1"/>
    <trip id="veh225" type="veh_passenger" depart="70.18" departLane="best" from="236320910#1" to="115561176"/>
    <trip id="veh226" type="veh_passenger" depart="70.49" departLane="best" departSpeed="max" from="115561570#0" to="302837927"/>
    <trip id="veh227" type="veh_passenger" depart="70.80" departLane="best" from="-115561085#0" to="-328746429#2"/>
    <trip id="veh228" type="veh_passenger" depart="71.11" departLane="best" from="-293286411#0" to="417319532#5"/>
    <trip id="veh229" type="veh_passenger" depart="71.43" departLane="best" departSpeed="max" from="115560980#0" to="-115561523"/>
    <trip id="veh230" type="veh_passenger" depart="71.74" departLane="best" from="-251561901#2" to="185549296#1"/>
    <trip id="veh231" type="veh_passenger" depart="72.05" departLane="best" from="138865615#3" to="-115560985"/>
    <trip id="veh232" type="veh_passenger" depart="72.36" departLane="best" departSpeed="max" from="-695669223" to="-115561305#13"/>
    <trip id="veh233" type="veh_passenger" depart="72.67" departLane="best" departSpeed="max" from="-726004184" to="-138865615#1"/>
    <trip id="veh234" type="veh_passenger" depart="72.99" departLane="best" departSpeed="max" from="-816835115" to="671983122#4"/>
    <trip id="veh235" type="veh_passenger" depart="73.30" departLane="best" from="-115561234#2" to="185549297#8"/>
    <trip id="veh236" type="veh_passenger" depart="73.61" departLane="best" departSpeed="max" from="413958678#0" to="-293290816#0"/>
    <trip id="veh237" type="veh_passenger" depart="73.92" departLane="best" departSpeed="max" from="-667954070" to="103426225#1"/>
    <trip id="veh238" type="veh_passenger" depart="74.23" departLane="best" from="458104434" to="279250252#1"/>
    <trip id="veh239" type="veh_passenger" depart="74.54" departLane="best" departSpeed="max" from="413303783#0" to="803679025#2"/>
    <trip id="veh240" type="veh_passenger" depart="74.86" departLane="best" from="-793851478#1" to="279156924#2"/>
    <trip id="veh241" type="veh_passenger" depart="75.17" departLane="best" from="-115561013#2" to="-115682646#0"/>
    <trip id="veh242" type="veh_passenger" depart="75.48" departLane="best" from="-195779439#2" to="-182941669#6"/>
    <trip id="veh243" type="veh_passenger" depart="75.79" departLane="best" from="-875076118#1" to="-110603826#1"/>
    <trip id="veh244" type="veh_passenger" depart="76.10" departLane="best" from="417228513#9" to="167061997#1"/>
    <trip id="veh245" type="veh_passenger" depart="76.42" departLane="best" departSpeed="max" from="-695654540" to="-115561714#2"/>
    <trip id="veh246" type="veh_passenger" depart="76.73" departLane="best" from="-1059235862" to="-115561440"/>
    <trip id="veh247" type="veh_passenger" depart="77.04" departLane="best" departSpeed="max" from="115561516" to="-110596398#2"/>
    <trip id="veh248" type="veh_passenger" depart="77.35" departLane="best" departSpeed="max" from="-695039774" to="115561486#4"/>
    <trip id="veh249" type="veh_passenger" depart="77.66" departLane="best" departSpeed="max" from="-110309284#2" to="136721688"/>
    <trip id="veh250" type="veh_passenger" depart="77.98" departLane="best" from="115561501#6" to="114591989#3"/>
    <trip id="veh251" type="veh_passenger" depart="78.29" departLane="best" from="-115522397#8" to="-839896283#8"/>
    <trip id="veh252" type="veh_passenger" depart="78.60" departLane="best" departSpeed="max" from="-182023665" to="459456563"/>
    <trip id="veh253" type="veh_passenger" depart="78.91" departLane="best" from="-203589974#2" to="-839896283#8"/>
    <trip id="veh254" type="veh_passenger" depart="79.22" departLane="best" from="185549298#0" to="417114115#1"/>
    <trip id="veh255" type="veh_passenger" depart="79.54" departLane="best" from="-266143643#3" to="115561083#5"/>
    <trip id="veh256" type="veh_passenger" depart="79.85" departLane="best" from="108942988#4" to="115561295#1"/>
    <trip id="veh257" type="veh_passenger" depart="80.16" departLane="best" from="-99682907#3" to="-571185339"/>